Circuit: .title MATRIX 1.4 IV T13 1400W RMS TD-CLASS - DEVELOPMENT RELEASE 1

WARNING: Less than two connections to node /-15V.  This node is used by V32.
WARNING: Less than two connections to node /+15V.  This node is used by V31.
Direct Newton iteration failed to find .op point.  (Use ".option noopiter" to skip.)
Starting Gmin stepping
Gmin = 10
Gmin = 1.07374
vernier = 0.5
vernier = 0.25
vernier = 0.125
vernier = 0.0625
Gmin = 0.995033
vernier = 0.03125
vernier = 0.015625
vernier = 0.0078125
vernier = 0.00390625
vernier = 0.00195313
Gmin = 1.00177
vernier = 0.000976563
vernier = 0.000488281
Gmin = 0
Gmin stepping failed

Starting source stepping with srcstepmethod=0
Source Step = 3.0303%
Source Step = 9.09979%
Source Step = 9.12938%
Source Step = 9.15897%
Source Step = 9.18857%
Source Step = 9.21816%
Source Step = 9.24775%
vernier = 0.00146484
Source Step = 9.29066%
Source Step = 9.33505%
Source Step = 9.37944%
Source Step = 9.42383%
Source Step = 9.46822%
vernier = 0.00219727
Source Step = 9.53036%
Source Step = 9.59695%
Source Step = 9.66353%
Source Step = 9.73011%
Source Step = 9.7967%
vernier = 0.0032959
Source Step = 9.88659%
Source Step = 9.98646%
Source Step = 10.0863%
Source Step = 10.1862%
Source Step = 10.2861%
vernier = 0.00494385
Source Step = 10.4159%
Source Step = 10.5657%
Source Step = 10.7156%
Source Step = 10.8654%
Source Step = 11.0152%
vernier = 0.00741577
Source Step = 11.2024%
Source Step = 11.4272%
Source Step = 11.6519%
Source Step = 11.8766%
Source Step = 12.1013%
vernier = 0.0111237
Source Step = 12.371%
Source Step = 12.7081%
Source Step = 13.0452%
Source Step = 13.3822%
Source Step = 13.7193%
vernier = 0.0166855
Source Step = 14.107%
Source Step = 14.6126%
Source Step = 15.1182%
Source Step = 15.6238%
Source Step = 16.1294%
vernier = 0.0250282
Source Step = 16.6856%
Source Step = 17.4441%
Source Step = 18.2025%
Source Step = 18.9609%
Source Step = 19.7193%
vernier = 0.0375423
Source Step = 20.5157%
Source Step = 21.6533%
Source Step = 22.791%
Source Step = 23.9286%
Source Step = 25.0663%
Source Step = 26.2039%
vernier = 0.0563135
Source Step = 27.9104%
Source Step = 29.6169%
Source Step = 31.3233%
Source Step = 33.0298%
Source Step = 34.0564%
Source Step = 34.083%
Source Step = 34.1097%
Source Step = 34.1364%
Source Step = 34.163%
Source Step = 34.1897%
vernier = 0.00131985
Source Step = 34.2283%
Source Step = 34.2683%
Source Step = 34.3083%
Source Step = 34.3483%
Source Step = 34.3883%
vernier = 0.00197977
Source Step = 34.4443%
Source Step = 34.5043%
Source Step = 34.5643%
Source Step = 34.6243%
Source Step = 34.6843%
vernier = 0.00296966
Source Step = 34.7653%
Source Step = 34.8553%
Source Step = 34.9453%
Source Step = 35.0353%
Source Step = 35.1252%
vernier = 0.00445449
Source Step = 35.2422%
Source Step = 35.3772%
Source Step = 35.5122%
Source Step = 35.6472%
Source Step = 35.7822%
vernier = 0.00668173
Source Step = 35.9509%
Source Step = 36.1534%
Source Step = 36.3558%
Source Step = 36.5583%
Source Step = 36.7608%
vernier = 0.0100226
Source Step = 37.0038%
Source Step = 37.3075%
Source Step = 37.6112%
Source Step = 37.9149%
Source Step = 38.2186%
vernier = 0.0150339
Source Step = 38.5679%
Source Step = 39.0235%
Source Step = 39.4791%
Source Step = 39.9346%
Source Step = 40.3902%
vernier = 0.0225508
Source Step = 40.8913%
Source Step = 41.5747%
Source Step = 42.258%
Source Step = 42.9414%
Source Step = 43.6248%
vernier = 0.0338263
Source Step = 44.3423%
Source Step = 45.3673%
Source Step = 46.3924%
Source Step = 47.4174%
Source Step = 48.4424%
Source Step = 49.4675%
vernier = 0.0507394
Source Step = 51.005%
Source Step = 52.5426%
Source Step = 54.0802%
Source Step = 55.6177%
Source Step = 57.1553%
vernier = 0.0761091
Source Step = 59.3847%
Source Step = 61.6911%
Source Step = 63.9974%
Source Step = 66.3037%
Source Step = 68.6101%
vernier = 0.114164
Source Step = 71.8389%
Source Step = 75.2984%
Source Step = 78.7579%
Source Step = 82.2175%
Source Step = 85.677%
vernier = 0.171245
Source Step = 90.3473%
Source Step = 91.9365%
Source Step = 92.0176%
Source Step = 92.0987%
Source Step = 92.1797%
Source Step = 92.2608%
Source Step = 92.3419%
Source Step = 92.423%
Source Step = 92.5041%
Source Step = 92.5852%
Source Step = 92.6662%
Source Step = 92.7473%
Source Step = 92.8284%
Source Step = 92.9095%
Source Step = 92.9906%
Source Step = 93.0716%
Source Step = 93.1527%
Source Step = 93.2338%
Source Step = 93.3149%
Source Step = 93.396%
Source Step = 93.4771%
Source Step = 93.5581%
Source Step = 93.6392%
Source Step = 93.7203%
Source Step = 93.8014%
Source stepping aborted.
Starting source stepping with srcstepmethod=1
Source Step = 3.0303%
Source Step = 5.5161%
vernier = 0.000976563
Source Step = 5.53385%
Source Step = 5.56345%
Source Step = 5.59304%
Source Step = 5.62263%
Source Step = 5.65223%
vernier = 0.00146484
Source Step = 5.68922%
Source Step = 5.73361%
Source Step = 5.77799%
Source Step = 5.82238%
Source Step = 5.86677%
vernier = 0.00219727
Source Step = 5.92004%
Source Step = 5.98662%
Source Step = 6.05321%
Source Step = 6.11979%
Source Step = 6.18638%
vernier = 0.0032959
Source Step = 6.26295%
Source Step = 6.36282%
Source Step = 6.4627%
Source Step = 6.56257%
Source Step = 6.66245%
vernier = 0.00494385
Source Step = 6.77231%
Source Step = 6.92213%
Source Step = 7.07194%
Source Step = 7.22175%
Source Step = 7.37157%
vernier = 0.00741577
Source Step = 7.52887%
Source Step = 7.75359%
Source Step = 7.97831%
Source Step = 8.20303%
Source Step = 8.42775%
Source Step = 8.65247%
vernier = 0.0111237
Source Step = 8.98955%
Source Step = 9.32663%
Source Step = 9.66371%
Source Step = 10.0008%
Source Step = 10.3379%
vernier = 0.0166855
Source Step = 10.8266%
Source Step = 11.3323%
Source Step = 11.8379%
Source Step = 12.3435%
Source Step = 12.8491%
vernier = 0.0250282
Source Step = 13.557%
Source Step = 14.3154%
Source Step = 15.0739%
Source Step = 15.8323%
Source Step = 16.5907%
vernier = 0.0375423
Source Step = 17.6146%
Source Step = 18.7522%
Source Step = 19.8899%
Source Step = 21.0275%
Source Step = 22.1652%
vernier = 0.0563135
Source Step = 23.6441%
Source Step = 25.3506%
Source Step = 27.0571%
Source Step = 28.7635%
Source Step = 30.47%
vernier = 0.0844703
Source Step = 32.6031%
Source Step = 35.1628%
Source Step = 37.7225%
Source Step = 40.2822%
Source Step = 42.8419%
vernier = 0.126705
Source Step = 45.9136%
Source Step = 49.7531%
Source Step = 53.5927%
Source Step = 57.4322%
Source Step = 61.2718%
vernier = 0.190058
Source Step = 65.6873%
Source Step = 71.4466%
Source Step = 77.206%
Source Step = 82.9653%
Source Step = 88.7246%
Source Step = 91.6223%
Source Step = 91.7123%
Source Step = 91.8023%
Source Step = 91.8923%
Source Step = 91.9823%
Source Step = 92.0722%
Source Step = 92.1622%
Source Step = 92.2522%
Source Step = 92.3422%
Source Step = 92.4322%
Source Step = 92.5222%
Source Step = 92.6122%
Source Step = 92.7022%
Source Step = 92.7922%
Source Step = 92.8822%
Source Step = 92.9721%
Source Step = 93.0621%
Source Step = 93.1521%
Source Step = 93.2421%
Source Step = 93.3321%
Source Step = 93.4221%
Source Step = 93.5121%
Source stepping aborted.
Pseudo Transient succeeded in finding the operating point at 2.13668 s.
Heightened Def Con from 0.000121807 to 0.000121816
Heightened Def Con from 0.000123444 to 0.000123453
Heightened Def Con from 0.00012679 to 0.000126799
Heightened Def Con from 0.000130244 to 0.000130253
Heightened Def Con from 0.000132016 to 0.000132025
Heightened Def Con from 0.000137543 to 0.000137552
Heightened Def Con from 0.000139464 to 0.000139473
Heightened Def Con from 0.000141428 to 0.000141437
Heightened Def Con from 0.000143439 to 0.000143448
Heightened Def Con from 0.000145502 to 0.000145511
Heightened Def Con from 0.000149801 to 0.00014981
Heightened Def Con from 0.000152046 to 0.000152055
Heightened Def Con from 0.000154362 to 0.000154371
Heightened Def Con from 0.000156757 to 0.000156766
Heightened Def Con from 0.000159239 to 0.000159248
Heightened Def Con from 0.000164491 to 0.0001645
Heightened Def Con from 0.000173279 to 0.000173288
Heightened Def Con from 0.000183609 to 0.000183618
Heightened Def Con from 0.000187529 to 0.000187538
Heightened Def Con from 0.000311583 to 0.000311592
Heightened Def Con from 0.000315141 to 0.00031515
Heightened Def Con from 0.000318489 to 0.000318498
Heightened Def Con from 0.00032466 to 0.000324669
Heightened Def Con from 0.000327529 to 0.000327538
Heightened Def Con from 0.000332904 to 0.000332913
Heightened Def Con from 0.000335438 to 0.000335447
Heightened Def Con from 0.000340243 to 0.000340252
Heightened Def Con from 0.000342528 to 0.000342537
Heightened Def Con from 0.000344745 to 0.000344754
Heightened Def Con from 0.0003469 to 0.000346909
Heightened Def Con from 0.000351036 to 0.000351045
Heightened Def Con from 0.00035497 to 0.000354979
Heightened Def Con from 0.000356872 to 0.000356881
Heightened Def Con from 0.000358735 to 0.000358744
Heightened Def Con from 0.00036235 to 0.000362359
Heightened Def Con from 0.000364109 to 0.000364118
Heightened Def Con from 0.000370861 to 0.00037087
Heightened Def Con from 0.000374092 to 0.000374101
Heightened Def Con from 0.000378787 to 0.000378796
Heightened Def Con from 0.00038332 to 0.000383329
Heightened Def Con from 0.000546016 to 0.00054602
Heightened Def Con from 0.000548996 to 0.000549001
Heightened Def Con from 0.00057099 to 0.000570992
Heightened Def Con from 0.000578869 to 0.00057887
Heightened Def Con from 0.000579981 to 0.000579982
Heightened Def Con from 0.000583329 to 0.00058333
Heightened Def Con from 0.000587898 to 0.000587899
Heightened Def Con from 0.000590271 to 0.000590272
Heightened Def Con from 0.000591482 to 0.000591484
Heightened Def Con from 0.000592708 to 0.000592709
Heightened Def Con from 0.00059394 to 0.000593943
Heightened Def Con from 0.000595194 to 0.000595195
Heightened Def Con from 0.00059645 to 0.000596451
Heightened Def Con from 0.000598982 to 0.000598983
Heightened Def Con from 0.000605392 to 0.000605393
Heightened Def Con from 0.000606688 to 0.000606689
Heightened Def Con from 0.000620158 to 0.000620159
Heightened Def Con from 0.000623349 to 0.000623353
Heightened Def Con from 0.000626058 to 0.000626059
Heightened Def Con from 0.000632313 to 0.000632315
Heightened Def Con from 0.000635583 to 0.000635584
Heightened Def Con from 0.000639455 to 0.00063946
Heightened Def Con from 0.000641203 to 0.000641207
Heightened Def Con from 0.000646239 to 0.00064624
Heightened Def Con from 0.000652206 to 0.000652207
Heightened Def Con from 0.000671419 to 0.00067142
Heightened Def Con from 0.000701317 to 0.000701325
Heightened Def Con from 0.00072081 to 0.000720812
Heightened Def Con from 0.000729785 to 0.000729789
Heightened Def Con from 0.00074038 to 0.000740384
Heightened Def Con from 0.000751799 to 0.000751804
Heightened Def Con from 0.000762491 to 0.000762499
Heightened Def Con from 0.000771596 to 0.000771599
Heightened Def Con from 0.000791448 to 0.000791456
Heightened Def Con from 0.00079654 to 0.000796544
Heightened Def Con from 0.000812418 to 0.00081242
Heightened Def Con from 0.000827208 to 0.000827209
Heightened Def Con from 0.000832203 to 0.000832204
Heightened Def Con from 0.000832327 to 0.000832332
Heightened Def Con from 0.000839022 to 0.000839023
Heightened Def Con from 0.00084321 to 0.000843211
Heightened Def Con from 0.000845212 to 0.000845213
Heightened Def Con from 0.000845503 to 0.000845507
Heightened Def Con from 0.000849346 to 0.00084935
Heightened Def Con from 0.000851194 to 0.000851198
Heightened Def Con from 0.000852707 to 0.000852708
Heightened Def Con from 0.000856797 to 0.000856801
Heightened Def Con from 0.000857881 to 0.000857882
Heightened Def Con from 0.00085954 to 0.000859541
Heightened Def Con from 0.000862779 to 0.00086278
Heightened Def Con from 0.000864361 to 0.000864362
Heightened Def Con from 0.00086592 to 0.000865921
Heightened Def Con from 0.000871934 to 0.000871935
Heightened Def Con from 0.000873383 to 0.000873384
Heightened Def Con from 0.0008751 to 0.000875104
Heightened Def Con from 0.000877613 to 0.000877615
Heightened Def Con from 0.000878989 to 0.00087899
Heightened Def Con from 0.000880352 to 0.000880353
Heightened Def Con from 0.000881989 to 0.000881993
Heightened Def Con from 0.000885696 to 0.000885698
Heightened Def Con from 0.000887013 to 0.000887014
Heightened Def Con from 0.000888322 to 0.000888324
Heightened Def Con from 0.000889626 to 0.000889627
Heightened Def Con from 0.000892216 to 0.000892217
Heightened Def Con from 0.000893502 to 0.000893504
Heightened Def Con from 0.000896056 to 0.000896057
Heightened Def Con from 0.000897321 to 0.000897322
Heightened Def Con from 0.000898579 to 0.00089858
Heightened Def Con from 0.00089858 to 0.000898588
Heightened Def Con from 0.000899828 to 0.000899829
Heightened Def Con from 0.000901062 to 0.000901068
Heightened Def Con from 0.000902294 to 0.000902295
Heightened Def Con from 0.000903508 to 0.000903509
Heightened Def Con from 0.000904709 to 0.00090471
Heightened Def Con from 0.000911682 to 0.000911683
Heightened Def Con from 0.000912822 to 0.000912823
Heightened Def Con from 0.000913962 to 0.000913963
Heightened Def Con from 0.000919705 to 0.000919706
Heightened Def Con from 0.000928333 to 0.000928337
Heightened Def Con from 0.000939801 to 0.00093981
Heightened Def Con from 0.00097464 to 0.000974641
N-Period=1
Fourier components of V(vmout)
DC component:-0.561951

Harmonic	Frequency	 Fourier 	Normalized	 Phase  	Normalized
 Number 	  [Hz]   	Component	 Component	[degree]	Phase [deg]
    1   	1.000e+03	1.113e+02	1.000e+00	    0.23°	    0.00°
    2   	2.000e+03	5.560e-03	4.996e-05	  119.30°	  119.07°
    3   	3.000e+03	5.177e-04	4.652e-06	    8.49°	    8.27°
    4   	4.000e+03	1.198e-03	1.076e-05	 -160.80°	 -161.03°
    5   	5.000e+03	1.374e-03	1.234e-05	 -163.44°	 -163.66°
    6   	6.000e+03	8.028e-04	7.214e-06	  177.75°	  177.52°
    7   	7.000e+03	6.141e-04	5.518e-06	 -160.31°	 -160.54°
    8   	8.000e+03	5.994e-04	5.386e-06	  178.29°	  178.07°
    9   	9.000e+03	6.268e-04	5.632e-06	 -154.27°	 -154.49°
Total Harmonic Distortion: 0.005412%(0.009850%)



Date: Sun Jul 24 07:21:23 2022
Total elapsed time: 91.833 seconds.

tnom = 27
temp = 27
method = modified trap
totiter = 897391
traniter = 834472
tranpoints = 237711
accept = 172232
rejected = 65635
matrix size = 294
fillins = 616
solver = Normal
Thread vector: 66.8/25.3[4] 21.2/10.8[4] 4.7/6.8[1] 3.3/4.2[1]  2592/500
Matrix Compiler1: 67.97 KB object code size  25.8/12.9/[7.3]
Matrix Compiler2: 37.19 KB object code size  10.6/9.7/[4.2]

