Circuit: .title MATRIX 1.4 IV T13 1400W RMS TD-CLASS - DEVELOPMENT RELEASE 1

WARNING: Less than two connections to node /-15V.  This node is used by V32.
WARNING: Less than two connections to node /+15V.  This node is used by V31.
Direct Newton iteration failed to find .op point.  (Use ".option noopiter" to skip.)
Starting Gmin stepping
Gmin = 10
Gmin = 1.07374
vernier = 0.5
vernier = 0.25
vernier = 0.125
vernier = 0.0625
Gmin = 0.995033
vernier = 0.03125
vernier = 0.015625
vernier = 0.0078125
vernier = 0.00390625
vernier = 0.00195313
Gmin = 1.00177
vernier = 0.000976563
vernier = 0.000488281
Gmin = 0
Gmin stepping failed

Starting source stepping with srcstepmethod=0
Source Step = 3.0303%
vernier = 0.25
Source Step = 7.57576%
Source Step = 15.1515%
Source Step = 22.7273%
Source Step = 30.303%
Source Step = 37.8788%
vernier = 0.375
Source Step = 48.8636%
Source Step = 60.2273%
Source Step = 71.5909%
Source Step = 82.9545%
Source Step = 94.3182%
vernier = 0.5625
Source stepping succeeded in finding the operating point.

Changing Tseed to 9.76563e-011
Heightened Def Con from 0.000118609 to 0.000118618
Heightened Def Con from 0.000120203 to 0.000120212
Heightened Def Con from 0.000125116 to 0.000125125
Heightened Def Con from 0.000126803 to 0.000126812
Heightened Def Con from 0.00013203 to 0.000132039
Heightened Def Con from 0.000135676 to 0.000135685
Heightened Def Con from 0.000137556 to 0.000137565
Heightened Def Con from 0.000141441 to 0.00014145
Heightened Def Con from 0.000143452 to 0.000143461
Heightened Def Con from 0.000145515 to 0.000145524
Heightened Def Con from 0.000149814 to 0.000149823
Heightened Def Con from 0.000152058 to 0.000152067
Heightened Def Con from 0.000154375 to 0.000154384
Heightened Def Con from 0.000159251 to 0.00015926
Heightened Def Con from 0.000164504 to 0.000164513
Heightened Def Con from 0.000173294 to 0.000173303
Heightened Def Con from 0.000176533 to 0.000176542
Heightened Def Con from 0.000187547 to 0.000187556
Heightened Def Con from 0.00020149 to 0.0002015
Heightened Def Con from 0.000259024 to 0.000259034
Heightened Def Con from 0.000276009 to 0.000276014
Heightened Def Con from 0.000311594 to 0.000311603
Heightened Def Con from 0.000318499 to 0.000318508
Heightened Def Con from 0.000321664 to 0.000321673
Heightened Def Con from 0.000324671 to 0.00032468
Heightened Def Con from 0.000335446 to 0.000335455
Heightened Def Con from 0.000337891 to 0.0003379
Heightened Def Con from 0.000340253 to 0.000340262
Heightened Def Con from 0.000342538 to 0.000342547
Heightened Def Con from 0.000344754 to 0.000344763
Heightened Def Con from 0.000346907 to 0.000346916
Heightened Def Con from 0.000353034 to 0.000353043
Heightened Def Con from 0.000354962 to 0.000354966
Heightened Def Con from 0.000358743 to 0.000358752
Heightened Def Con from 0.000360569 to 0.000360578
Heightened Def Con from 0.000362359 to 0.000362368
Heightened Def Con from 0.000365844 to 0.000365853
Heightened Def Con from 0.000377248 to 0.000377257
Heightened Def Con from 0.000378794 to 0.000378803
Heightened Def Con from 0.000387725 to 0.000387734
Heightened Def Con from 0.000539487 to 0.000539491
Heightened Def Con from 0.000542799 to 0.000542803
Heightened Def Con from 0.000548917 to 0.000548921
Heightened Def Con from 0.000553148 to 0.000553153
Heightened Def Con from 0.000572747 to 0.000572752
Heightened Def Con from 0.000577689 to 0.000577691
Heightened Def Con from 0.000578802 to 0.000578803
Heightened Def Con from 0.000582142 to 0.000582143
Heightened Def Con from 0.000583261 to 0.000583263
Heightened Def Con from 0.000584388 to 0.000584389
Heightened Def Con from 0.000590199 to 0.0005902
Heightened Def Con from 0.000592628 to 0.000592631
Heightened Def Con from 0.000593866 to 0.000593869
Heightened Def Con from 0.000593871 to 0.000593872
Heightened Def Con from 0.000595119 to 0.00059512
Heightened Def Con from 0.000597637 to 0.000597638
Heightened Def Con from 0.000598905 to 0.000598906
Heightened Def Con from 0.000599493 to 0.000599498
Heightened Def Con from 0.000604024 to 0.000604025
Heightened Def Con from 0.00060791 to 0.000607911
Heightened Def Con from 0.000610531 to 0.000610532
Heightened Def Con from 0.000611853 to 0.000611855
Heightened Def Con from 0.000617263 to 0.000617264
Heightened Def Con from 0.000618657 to 0.000618658
Heightened Def Con from 0.000620071 to 0.000620073
Heightened Def Con from 0.00062151 to 0.000621511
Heightened Def Con from 0.000622971 to 0.000622972
Heightened Def Con from 0.000626475 to 0.000626478
Heightened Def Con from 0.000639349 to 0.000639354
Heightened Def Con from 0.000640613 to 0.000640614
Heightened Def Con from 0.000641095 to 0.0006411
Heightened Def Con from 0.000644238 to 0.00064424
Heightened Def Con from 0.000656351 to 0.000656352
Heightened Def Con from 0.000660925 to 0.000660927
Heightened Def Con from 0.000665863 to 0.000665864
Heightened Def Con from 0.000680449 to 0.00068045
Heightened Def Con from 0.000687642 to 0.000687643
Heightened Def Con from 0.000691679 to 0.000691687
Heightened Def Con from 0.000720318 to 0.000720321
Heightened Def Con from 0.000729197 to 0.000729201
Heightened Def Con from 0.000739706 to 0.000739711
Heightened Def Con from 0.000751118 to 0.000751122
Heightened Def Con from 0.00076187 to 0.000761874
Heightened Def Con from 0.00076246 to 0.000762463
Heightened Def Con from 0.000778822 to 0.000778825
Heightened Def Con from 0.000791124 to 0.000791132
Heightened Def Con from 0.000821581 to 0.000821582
Heightened Def Con from 0.000834416 to 0.000834417
Heightened Def Con from 0.00083669 to 0.000836691
Heightened Def Con from 0.000838889 to 0.00083889
Heightened Def Con from 0.000845091 to 0.000845092
Heightened Def Con from 0.000848941 to 0.000848942
Heightened Def Con from 0.000851083 to 0.000851088
Heightened Def Con from 0.000852598 to 0.000852599
Heightened Def Con from 0.000852888 to 0.000852892
Heightened Def Con from 0.000856087 to 0.000856088
Heightened Def Con from 0.000857779 to 0.00085778
Heightened Def Con from 0.00085944 to 0.000859441
Heightened Def Con from 0.000861074 to 0.000861076
Heightened Def Con from 0.000864266 to 0.000864267
Heightened Def Con from 0.000865827 to 0.000865828
Heightened Def Con from 0.000867365 to 0.000867366
Heightened Def Con from 0.000868881 to 0.000868882
Heightened Def Con from 0.000870374 to 0.000870375
Heightened Def Con from 0.000872134 to 0.000872138
Heightened Def Con from 0.000873296 to 0.000873297
Heightened Def Con from 0.000875014 to 0.000875018
Heightened Def Con from 0.000876136 to 0.000876137
Heightened Def Con from 0.000880269 to 0.00088027
Heightened Def Con from 0.000881621 to 0.000881622
Heightened Def Con from 0.000885616 to 0.000885617
Heightened Def Con from 0.000886933 to 0.000886934
Heightened Def Con from 0.000888243 to 0.000888244
Heightened Def Con from 0.000889547 to 0.000889548
Heightened Def Con from 0.000890845 to 0.000890846
Heightened Def Con from 0.000892138 to 0.000892139
Heightened Def Con from 0.000893425 to 0.000893426
Heightened Def Con from 0.000894705 to 0.000894706
Heightened Def Con from 0.000895979 to 0.00089598
Heightened Def Con from 0.000897244 to 0.000897246
Heightened Def Con from 0.000899751 to 0.000899753
Heightened Def Con from 0.000899753 to 0.000899761
Heightened Def Con from 0.000900985 to 0.000900991
Heightened Def Con from 0.000902219 to 0.00090222
Heightened Def Con from 0.000903433 to 0.000903434
Heightened Def Con from 0.000904635 to 0.000904637
Heightened Def Con from 0.000905824 to 0.000905825
Heightened Def Con from 0.000911611 to 0.000911613
Heightened Def Con from 0.000916177 to 0.000916178
Heightened Def Con from 0.000917324 to 0.000917325
Heightened Def Con from 0.000918476 to 0.000918477
Heightened Def Con from 0.000920798 to 0.000920799
Heightened Def Con from 0.000924342 to 0.000924343
Heightened Def Con from 0.000930474 to 0.000930475
Heightened Def Con from 0.000930746 to 0.00093075
Heightened Def Con from 0.000934323 to 0.000934325
N-Period=1
Fourier components of V(vmout)
DC component:-0.561947

Harmonic	Frequency	 Fourier 	Normalized	 Phase  	Normalized
 Number 	  [Hz]   	Component	 Component	[degree]	Phase [deg]
    1   	1.000e+03	1.113e+02	1.000e+00	    0.23°	    0.00°
    2   	2.000e+03	5.558e-03	4.995e-05	  119.28°	  119.06°
    3   	3.000e+03	5.067e-04	4.553e-06	    9.22°	    8.99°
    4   	4.000e+03	1.195e-03	1.074e-05	 -161.48°	 -161.70°
    5   	5.000e+03	1.364e-03	1.226e-05	 -163.56°	 -163.78°
    6   	6.000e+03	8.017e-04	7.204e-06	  177.56°	  177.33°
    7   	7.000e+03	6.180e-04	5.554e-06	 -161.12°	 -161.34°
    8   	8.000e+03	6.009e-04	5.399e-06	  177.25°	  177.02°
    9   	9.000e+03	6.193e-04	5.565e-06	 -154.50°	 -154.72°
Total Harmonic Distortion: 0.005407%(0.010483%)



Date: Sun Jul 24 10:44:22 2022
Total elapsed time: 84.967 seconds.

tnom = 27
temp = 27
method = modified trap
totiter = 838955
traniter = 836191
tranpoints = 237867
accept = 172143
rejected = 65859
matrix size = 294
fillins = 498
solver = Normal
Thread vector: 55.6/22.7[4] 25.1/10.9[4] 6.7/4.9[4] 4.3/4.4[1]  2592/500
Matrix Compiler1: 54.75 KB object code size  543.5/12.4/[7.6]
Matrix Compiler2: 35.12 KB object code size  10.3/11.6/[6.0]

